
---------- Begin Simulation Statistics ----------
sim_seconds                                  0.817355                       # Number of seconds simulated
sim_ticks                                817354556000                       # Number of ticks simulated
final_tick                               817354556000                       # Number of ticks from beginning of simulation (restored from checkpoints and never reset)
sim_freq                                 1000000000000                       # Frequency of simulated ticks
host_inst_rate                                 114529                       # Simulator instruction rate (inst/s)
host_op_rate                                   221566                       # Simulator op (including micro ops) rate (op/s)
host_tick_rate                               39702537                       # Simulator tick rate (ticks/s)
host_mem_usage                                1182044                       # Number of bytes of host memory used
host_seconds                                 20586.96                       # Real time elapsed on the host
sim_insts                                  2357799081                       # Number of instructions simulated
sim_ops                                    4561367797                       # Number of ops (including micro ops) simulated
system.clk_domain.voltage_domain.voltage            1                       # Voltage in Volts
system.clk_domain.clock                           500                       # Clock period in ticks
system.mem_ctrl.pwrStateResidencyTicks::UNDEFINED 817354556000                       # Cumulative time (in ticks) in various power states
system.mem_ctrl.bytes_read::cpu.inst            41408                       # Number of bytes read from this memory
system.mem_ctrl.bytes_read::cpu.data            30272                       # Number of bytes read from this memory
system.mem_ctrl.bytes_read::total               71680                       # Number of bytes read from this memory
system.mem_ctrl.bytes_inst_read::cpu.inst        41408                       # Number of instructions bytes read from this memory
system.mem_ctrl.bytes_inst_read::total          41408                       # Number of instructions bytes read from this memory
system.mem_ctrl.num_reads::cpu.inst               647                       # Number of read requests responded to by this memory
system.mem_ctrl.num_reads::cpu.data               473                       # Number of read requests responded to by this memory
system.mem_ctrl.num_reads::total                 1120                       # Number of read requests responded to by this memory
system.mem_ctrl.bw_read::cpu.inst               50661                       # Total read bandwidth from this memory (bytes/s)
system.mem_ctrl.bw_read::cpu.data               37037                       # Total read bandwidth from this memory (bytes/s)
system.mem_ctrl.bw_read::total                  87698                       # Total read bandwidth from this memory (bytes/s)
system.mem_ctrl.bw_inst_read::cpu.inst          50661                       # Instruction read bandwidth from this memory (bytes/s)
system.mem_ctrl.bw_inst_read::total             50661                       # Instruction read bandwidth from this memory (bytes/s)
system.mem_ctrl.bw_total::cpu.inst              50661                       # Total bandwidth to/from this memory (bytes/s)
system.mem_ctrl.bw_total::cpu.data              37037                       # Total bandwidth to/from this memory (bytes/s)
system.mem_ctrl.bw_total::total                 87698                       # Total bandwidth to/from this memory (bytes/s)
system.mem_ctrl.readReqs                         1121                       # Number of read requests accepted
system.mem_ctrl.writeReqs                           0                       # Number of write requests accepted
system.mem_ctrl.readBursts                       1121                       # Number of DRAM read bursts, including those serviced by the write queue
system.mem_ctrl.writeBursts                         0                       # Number of DRAM write bursts, including those merged in the write queue
system.mem_ctrl.bytesReadDRAM                   71744                       # Total number of bytes read from DRAM
system.mem_ctrl.bytesReadWrQ                        0                       # Total number of bytes read from write queue
system.mem_ctrl.bytesWritten                        0                       # Total number of bytes written to DRAM
system.mem_ctrl.bytesReadSys                    71744                       # Total read bytes from the system interface side
system.mem_ctrl.bytesWrittenSys                     0                       # Total written bytes from the system interface side
system.mem_ctrl.servicedByWrQ                       0                       # Number of DRAM read bursts serviced by the write queue
system.mem_ctrl.mergedWrBursts                      0                       # Number of DRAM write bursts merged with an existing one
system.mem_ctrl.neitherReadNorWriteReqs             0                       # Number of requests that are neither read nor write
system.mem_ctrl.perBankRdBursts::0                 71                       # Per bank write bursts
system.mem_ctrl.perBankRdBursts::1                 85                       # Per bank write bursts
system.mem_ctrl.perBankRdBursts::2                 29                       # Per bank write bursts
system.mem_ctrl.perBankRdBursts::3                 22                       # Per bank write bursts
system.mem_ctrl.perBankRdBursts::4                  0                       # Per bank write bursts
system.mem_ctrl.perBankRdBursts::5                 64                       # Per bank write bursts
system.mem_ctrl.perBankRdBursts::6                 43                       # Per bank write bursts
system.mem_ctrl.perBankRdBursts::7                106                       # Per bank write bursts
system.mem_ctrl.perBankRdBursts::8                 34                       # Per bank write bursts
system.mem_ctrl.perBankRdBursts::9                137                       # Per bank write bursts
system.mem_ctrl.perBankRdBursts::10               133                       # Per bank write bursts
system.mem_ctrl.perBankRdBursts::11               135                       # Per bank write bursts
system.mem_ctrl.perBankRdBursts::12               122                       # Per bank write bursts
system.mem_ctrl.perBankRdBursts::13                70                       # Per bank write bursts
system.mem_ctrl.perBankRdBursts::14                14                       # Per bank write bursts
system.mem_ctrl.perBankRdBursts::15                56                       # Per bank write bursts
system.mem_ctrl.perBankWrBursts::0                  0                       # Per bank write bursts
system.mem_ctrl.perBankWrBursts::1                  0                       # Per bank write bursts
system.mem_ctrl.perBankWrBursts::2                  0                       # Per bank write bursts
system.mem_ctrl.perBankWrBursts::3                  0                       # Per bank write bursts
system.mem_ctrl.perBankWrBursts::4                  0                       # Per bank write bursts
system.mem_ctrl.perBankWrBursts::5                  0                       # Per bank write bursts
system.mem_ctrl.perBankWrBursts::6                  0                       # Per bank write bursts
system.mem_ctrl.perBankWrBursts::7                  0                       # Per bank write bursts
system.mem_ctrl.perBankWrBursts::8                  0                       # Per bank write bursts
system.mem_ctrl.perBankWrBursts::9                  0                       # Per bank write bursts
system.mem_ctrl.perBankWrBursts::10                 0                       # Per bank write bursts
system.mem_ctrl.perBankWrBursts::11                 0                       # Per bank write bursts
system.mem_ctrl.perBankWrBursts::12                 0                       # Per bank write bursts
system.mem_ctrl.perBankWrBursts::13                 0                       # Per bank write bursts
system.mem_ctrl.perBankWrBursts::14                 0                       # Per bank write bursts
system.mem_ctrl.perBankWrBursts::15                 0                       # Per bank write bursts
system.mem_ctrl.numRdRetry                          0                       # Number of times read queue was full causing retry
system.mem_ctrl.numWrRetry                          0                       # Number of times write queue was full causing retry
system.mem_ctrl.totGap                   817354532500                       # Total gap between requests
system.mem_ctrl.readPktSize::0                      0                       # Read request sizes (log2)
system.mem_ctrl.readPktSize::1                      0                       # Read request sizes (log2)
system.mem_ctrl.readPktSize::2                      0                       # Read request sizes (log2)
system.mem_ctrl.readPktSize::3                      0                       # Read request sizes (log2)
system.mem_ctrl.readPktSize::4                      0                       # Read request sizes (log2)
system.mem_ctrl.readPktSize::5                      0                       # Read request sizes (log2)
system.mem_ctrl.readPktSize::6                   1121                       # Read request sizes (log2)
system.mem_ctrl.writePktSize::0                     0                       # Write request sizes (log2)
system.mem_ctrl.writePktSize::1                     0                       # Write request sizes (log2)
system.mem_ctrl.writePktSize::2                     0                       # Write request sizes (log2)
system.mem_ctrl.writePktSize::3                     0                       # Write request sizes (log2)
system.mem_ctrl.writePktSize::4                     0                       # Write request sizes (log2)
system.mem_ctrl.writePktSize::5                     0                       # Write request sizes (log2)
system.mem_ctrl.writePktSize::6                     0                       # Write request sizes (log2)
system.mem_ctrl.rdQLenPdf::0                      711                       # What read queue length does an incoming req see
system.mem_ctrl.rdQLenPdf::1                      278                       # What read queue length does an incoming req see
system.mem_ctrl.rdQLenPdf::2                      100                       # What read queue length does an incoming req see
system.mem_ctrl.rdQLenPdf::3                       26                       # What read queue length does an incoming req see
system.mem_ctrl.rdQLenPdf::4                        5                       # What read queue length does an incoming req see
system.mem_ctrl.rdQLenPdf::5                        1                       # What read queue length does an incoming req see
system.mem_ctrl.rdQLenPdf::6                        0                       # What read queue length does an incoming req see
system.mem_ctrl.rdQLenPdf::7                        0                       # What read queue length does an incoming req see
system.mem_ctrl.rdQLenPdf::8                        0                       # What read queue length does an incoming req see
system.mem_ctrl.rdQLenPdf::9                        0                       # What read queue length does an incoming req see
system.mem_ctrl.rdQLenPdf::10                       0                       # What read queue length does an incoming req see
system.mem_ctrl.rdQLenPdf::11                       0                       # What read queue length does an incoming req see
system.mem_ctrl.rdQLenPdf::12                       0                       # What read queue length does an incoming req see
system.mem_ctrl.rdQLenPdf::13                       0                       # What read queue length does an incoming req see
system.mem_ctrl.rdQLenPdf::14                       0                       # What read queue length does an incoming req see
system.mem_ctrl.rdQLenPdf::15                       0                       # What read queue length does an incoming req see
system.mem_ctrl.rdQLenPdf::16                       0                       # What read queue length does an incoming req see
system.mem_ctrl.rdQLenPdf::17                       0                       # What read queue length does an incoming req see
system.mem_ctrl.rdQLenPdf::18                       0                       # What read queue length does an incoming req see
system.mem_ctrl.rdQLenPdf::19                       0                       # What read queue length does an incoming req see
system.mem_ctrl.rdQLenPdf::20                       0                       # What read queue length does an incoming req see
system.mem_ctrl.rdQLenPdf::21                       0                       # What read queue length does an incoming req see
system.mem_ctrl.rdQLenPdf::22                       0                       # What read queue length does an incoming req see
system.mem_ctrl.rdQLenPdf::23                       0                       # What read queue length does an incoming req see
system.mem_ctrl.rdQLenPdf::24                       0                       # What read queue length does an incoming req see
system.mem_ctrl.rdQLenPdf::25                       0                       # What read queue length does an incoming req see
system.mem_ctrl.rdQLenPdf::26                       0                       # What read queue length does an incoming req see
system.mem_ctrl.rdQLenPdf::27                       0                       # What read queue length does an incoming req see
system.mem_ctrl.rdQLenPdf::28                       0                       # What read queue length does an incoming req see
system.mem_ctrl.rdQLenPdf::29                       0                       # What read queue length does an incoming req see
system.mem_ctrl.rdQLenPdf::30                       0                       # What read queue length does an incoming req see
system.mem_ctrl.rdQLenPdf::31                       0                       # What read queue length does an incoming req see
system.mem_ctrl.wrQLenPdf::0                        0                       # What write queue length does an incoming req see
system.mem_ctrl.wrQLenPdf::1                        0                       # What write queue length does an incoming req see
system.mem_ctrl.wrQLenPdf::2                        0                       # What write queue length does an incoming req see
system.mem_ctrl.wrQLenPdf::3                        0                       # What write queue length does an incoming req see
system.mem_ctrl.wrQLenPdf::4                        0                       # What write queue length does an incoming req see
system.mem_ctrl.wrQLenPdf::5                        0                       # What write queue length does an incoming req see
system.mem_ctrl.wrQLenPdf::6                        0                       # What write queue length does an incoming req see
system.mem_ctrl.wrQLenPdf::7                        0                       # What write queue length does an incoming req see
system.mem_ctrl.wrQLenPdf::8                        0                       # What write queue length does an incoming req see
system.mem_ctrl.wrQLenPdf::9                        0                       # What write queue length does an incoming req see
system.mem_ctrl.wrQLenPdf::10                       0                       # What write queue length does an incoming req see
system.mem_ctrl.wrQLenPdf::11                       0                       # What write queue length does an incoming req see
system.mem_ctrl.wrQLenPdf::12                       0                       # What write queue length does an incoming req see
system.mem_ctrl.wrQLenPdf::13                       0                       # What write queue length does an incoming req see
system.mem_ctrl.wrQLenPdf::14                       0                       # What write queue length does an incoming req see
system.mem_ctrl.wrQLenPdf::15                       0                       # What write queue length does an incoming req see
system.mem_ctrl.wrQLenPdf::16                       0                       # What write queue length does an incoming req see
system.mem_ctrl.wrQLenPdf::17                       0                       # What write queue length does an incoming req see
system.mem_ctrl.wrQLenPdf::18                       0                       # What write queue length does an incoming req see
system.mem_ctrl.wrQLenPdf::19                       0                       # What write queue length does an incoming req see
system.mem_ctrl.wrQLenPdf::20                       0                       # What write queue length does an incoming req see
system.mem_ctrl.wrQLenPdf::21                       0                       # What write queue length does an incoming req see
system.mem_ctrl.wrQLenPdf::22                       0                       # What write queue length does an incoming req see
system.mem_ctrl.wrQLenPdf::23                       0                       # What write queue length does an incoming req see
system.mem_ctrl.wrQLenPdf::24                       0                       # What write queue length does an incoming req see
system.mem_ctrl.wrQLenPdf::25                       0                       # What write queue length does an incoming req see
system.mem_ctrl.wrQLenPdf::26                       0                       # What write queue length does an incoming req see
system.mem_ctrl.wrQLenPdf::27                       0                       # What write queue length does an incoming req see
system.mem_ctrl.wrQLenPdf::28                       0                       # What write queue length does an incoming req see
system.mem_ctrl.wrQLenPdf::29                       0                       # What write queue length does an incoming req see
system.mem_ctrl.wrQLenPdf::30                       0                       # What write queue length does an incoming req see
system.mem_ctrl.wrQLenPdf::31                       0                       # What write queue length does an incoming req see
system.mem_ctrl.wrQLenPdf::32                       0                       # What write queue length does an incoming req see
system.mem_ctrl.wrQLenPdf::33                       0                       # What write queue length does an incoming req see
system.mem_ctrl.wrQLenPdf::34                       0                       # What write queue length does an incoming req see
system.mem_ctrl.wrQLenPdf::35                       0                       # What write queue length does an incoming req see
system.mem_ctrl.wrQLenPdf::36                       0                       # What write queue length does an incoming req see
system.mem_ctrl.wrQLenPdf::37                       0                       # What write queue length does an incoming req see
system.mem_ctrl.wrQLenPdf::38                       0                       # What write queue length does an incoming req see
system.mem_ctrl.wrQLenPdf::39                       0                       # What write queue length does an incoming req see
system.mem_ctrl.wrQLenPdf::40                       0                       # What write queue length does an incoming req see
system.mem_ctrl.wrQLenPdf::41                       0                       # What write queue length does an incoming req see
system.mem_ctrl.wrQLenPdf::42                       0                       # What write queue length does an incoming req see
system.mem_ctrl.wrQLenPdf::43                       0                       # What write queue length does an incoming req see
system.mem_ctrl.wrQLenPdf::44                       0                       # What write queue length does an incoming req see
system.mem_ctrl.wrQLenPdf::45                       0                       # What write queue length does an incoming req see
system.mem_ctrl.wrQLenPdf::46                       0                       # What write queue length does an incoming req see
system.mem_ctrl.wrQLenPdf::47                       0                       # What write queue length does an incoming req see
system.mem_ctrl.wrQLenPdf::48                       0                       # What write queue length does an incoming req see
system.mem_ctrl.wrQLenPdf::49                       0                       # What write queue length does an incoming req see
system.mem_ctrl.wrQLenPdf::50                       0                       # What write queue length does an incoming req see
system.mem_ctrl.wrQLenPdf::51                       0                       # What write queue length does an incoming req see
system.mem_ctrl.wrQLenPdf::52                       0                       # What write queue length does an incoming req see
system.mem_ctrl.wrQLenPdf::53                       0                       # What write queue length does an incoming req see
system.mem_ctrl.wrQLenPdf::54                       0                       # What write queue length does an incoming req see
system.mem_ctrl.wrQLenPdf::55                       0                       # What write queue length does an incoming req see
system.mem_ctrl.wrQLenPdf::56                       0                       # What write queue length does an incoming req see
system.mem_ctrl.wrQLenPdf::57                       0                       # What write queue length does an incoming req see
system.mem_ctrl.wrQLenPdf::58                       0                       # What write queue length does an incoming req see
system.mem_ctrl.wrQLenPdf::59                       0                       # What write queue length does an incoming req see
system.mem_ctrl.wrQLenPdf::60                       0                       # What write queue length does an incoming req see
system.mem_ctrl.wrQLenPdf::61                       0                       # What write queue length does an incoming req see
system.mem_ctrl.wrQLenPdf::62                       0                       # What write queue length does an incoming req see
system.mem_ctrl.wrQLenPdf::63                       0                       # What write queue length does an incoming req see
system.mem_ctrl.bytesPerActivate::samples          210                       # Bytes accessed per row activation
system.mem_ctrl.bytesPerActivate::mean     332.190476                       # Bytes accessed per row activation
system.mem_ctrl.bytesPerActivate::gmean    205.827628                       # Bytes accessed per row activation
system.mem_ctrl.bytesPerActivate::stdev    328.443803                       # Bytes accessed per row activation
system.mem_ctrl.bytesPerActivate::0-127            60     28.57%     28.57% # Bytes accessed per row activation
system.mem_ctrl.bytesPerActivate::128-255           59     28.10%     56.67% # Bytes accessed per row activation
system.mem_ctrl.bytesPerActivate::256-383           24     11.43%     68.10% # Bytes accessed per row activation
system.mem_ctrl.bytesPerActivate::384-511           18      8.57%     76.67% # Bytes accessed per row activation
system.mem_ctrl.bytesPerActivate::512-639           10      4.76%     81.43% # Bytes accessed per row activation
system.mem_ctrl.bytesPerActivate::640-767            3      1.43%     82.86% # Bytes accessed per row activation
system.mem_ctrl.bytesPerActivate::768-895            5      2.38%     85.24% # Bytes accessed per row activation
system.mem_ctrl.bytesPerActivate::896-1023            8      3.81%     89.05% # Bytes accessed per row activation
system.mem_ctrl.bytesPerActivate::1024-1151           23     10.95%    100.00% # Bytes accessed per row activation
system.mem_ctrl.bytesPerActivate::total           210                       # Bytes accessed per row activation
system.mem_ctrl.totQLat                      16815500                       # Total ticks spent queuing
system.mem_ctrl.totMemAccLat                 37834250                       # Total ticks spent from burst creation until serviced by the DRAM
system.mem_ctrl.totBusLat                     5605000                       # Total ticks spent in databus transfers
system.mem_ctrl.avgQLat                      15000.45                       # Average queueing delay per DRAM burst
system.mem_ctrl.avgBusLat                     5000.00                       # Average bus latency per DRAM burst
system.mem_ctrl.avgMemAccLat                 33750.45                       # Average memory access latency per DRAM burst
system.mem_ctrl.avgRdBW                          0.09                       # Average DRAM read bandwidth in MiByte/s
system.mem_ctrl.avgWrBW                          0.00                       # Average achieved write bandwidth in MiByte/s
system.mem_ctrl.avgRdBWSys                       0.09                       # Average system read bandwidth in MiByte/s
system.mem_ctrl.avgWrBWSys                       0.00                       # Average system write bandwidth in MiByte/s
system.mem_ctrl.peakBW                       12800.00                       # Theoretical peak bandwidth in MiByte/s
system.mem_ctrl.busUtil                          0.00                       # Data bus utilization in percentage
system.mem_ctrl.busUtilRead                      0.00                       # Data bus utilization in percentage for reads
system.mem_ctrl.busUtilWrite                     0.00                       # Data bus utilization in percentage for writes
system.mem_ctrl.avgRdQLen                        2.00                       # Average read queue length when enqueuing
system.mem_ctrl.avgWrQLen                        0.00                       # Average write queue length when enqueuing
system.mem_ctrl.readRowHits                       904                       # Number of row buffer hits during reads
system.mem_ctrl.writeRowHits                        0                       # Number of row buffer hits during writes
system.mem_ctrl.readRowHitRate                  80.64                       # Row buffer hit rate for reads
system.mem_ctrl.writeRowHitRate                   nan                       # Row buffer hit rate for writes
system.mem_ctrl.avgGap                   729129823.82                       # Average gap between requests
system.mem_ctrl.pageHitRate                     80.64                       # Row buffer hit rate, read and write combined
system.mem_ctrl_0.actEnergy                    699720                       # Energy for activate commands per rank (pJ)
system.mem_ctrl_0.preEnergy                    360525                       # Energy for precharge commands per rank (pJ)
system.mem_ctrl_0.readEnergy                  2998800                       # Energy for read commands per rank (pJ)
system.mem_ctrl_0.writeEnergy                       0                       # Energy for write commands per rank (pJ)
system.mem_ctrl_0.refreshEnergy          6146400.000000                       # Energy for refresh commands per rank (pJ)
system.mem_ctrl_0.actBackEnergy               5735910                       # Energy for active background per rank (pJ)
system.mem_ctrl_0.preBackEnergy                245280                       # Energy for precharge background per rank (pJ)
system.mem_ctrl_0.actPowerDownEnergy         20447610                       # Energy for active power-down per rank (pJ)
system.mem_ctrl_0.prePowerDownEnergy          5530080                       # Energy for precharge power-down per rank (pJ)
system.mem_ctrl_0.selfRefreshEnergy      196148255340                       # Energy for self refresh per rank (pJ)
system.mem_ctrl_0.totalEnergy            196190419665                       # Total energy per rank (pJ)
system.mem_ctrl_0.averagePower             240.030986                       # Core power per rank (mW)
system.mem_ctrl_0.totalIdleTime          817341251500                       # Total Idle time Per DRAM Rank
system.mem_ctrl_0.memoryStateTime::IDLE        341500                       # Time in different power states
system.mem_ctrl_0.memoryStateTime::REF        2606000                       # Time in different power states
system.mem_ctrl_0.memoryStateTime::SREF  817282096250                       # Time in different power states
system.mem_ctrl_0.memoryStateTime::PRE_PDN     14403000                       # Time in different power states
system.mem_ctrl_0.memoryStateTime::ACT       10266250                       # Time in different power states
system.mem_ctrl_0.memoryStateTime::ACT_PDN     44843000                       # Time in different power states
system.mem_ctrl_1.actEnergy                    849660                       # Energy for activate commands per rank (pJ)
system.mem_ctrl_1.preEnergy                    436425                       # Energy for precharge commands per rank (pJ)
system.mem_ctrl_1.readEnergy                  5005140                       # Energy for read commands per rank (pJ)
system.mem_ctrl_1.writeEnergy                       0                       # Energy for write commands per rank (pJ)
system.mem_ctrl_1.refreshEnergy          6146400.000000                       # Energy for refresh commands per rank (pJ)
system.mem_ctrl_1.actBackEnergy               8874330                       # Energy for active background per rank (pJ)
system.mem_ctrl_1.preBackEnergy               1326240                       # Energy for precharge background per rank (pJ)
system.mem_ctrl_1.actPowerDownEnergy         18637860                       # Energy for active power-down per rank (pJ)
system.mem_ctrl_1.prePowerDownEnergy          3093120                       # Energy for precharge power-down per rank (pJ)
system.mem_ctrl_1.selfRefreshEnergy      196148403540                       # Energy for self refresh per rank (pJ)
system.mem_ctrl_1.totalEnergy            196192772715                       # Total energy per rank (pJ)
system.mem_ctrl_1.averagePower             240.033864                       # Core power per rank (mW)
system.mem_ctrl_1.totalIdleTime          817331599500                       # Total Idle time Per DRAM Rank
system.mem_ctrl_1.memoryStateTime::IDLE       3141500                       # Time in different power states
system.mem_ctrl_1.memoryStateTime::REF        2606000                       # Time in different power states
system.mem_ctrl_1.memoryStateTime::SREF  817282713250                       # Time in different power states
system.mem_ctrl_1.memoryStateTime::PRE_PDN      8054250                       # Time in different power states
system.mem_ctrl_1.memoryStateTime::ACT       17209000                       # Time in different power states
system.mem_ctrl_1.memoryStateTime::ACT_PDN     40832000                       # Time in different power states
system.pwrStateResidencyTicks::UNDEFINED 817354556000                       # Cumulative time (in ticks) in various power states
system.cpu.branchPred.lookups               256626609                       # Number of BP lookups
system.cpu.branchPred.condPredicted         256626609                       # Number of conditional branches predicted
system.cpu.branchPred.condIncorrect            111214                       # Number of conditional branches incorrect
system.cpu.branchPred.BTBLookups            256521572                       # Number of BTB lookups
system.cpu.branchPred.BTBHits                       0                       # Number of BTB hits
system.cpu.branchPred.BTBCorrect                    0                       # Number of correct BTB predictions (this stat may not work properly.
system.cpu.branchPred.BTBHitPct              0.000000                       # BTB Hit Percentage
system.cpu.branchPred.usedRAS                     161                       # Number of times the RAS was used to get a target.
system.cpu.branchPred.RASInCorrect                 61                       # Number of incorrect RAS predictions.
system.cpu.branchPred.indirectLookups       256521572                       # Number of indirect predictor lookups.
system.cpu.branchPred.indirectHits          256520323                       # Number of indirect target hits.
system.cpu.branchPred.indirectMisses             1249                       # Number of indirect misses.
system.cpu.branchPredindirectMispredicted          337                       # Number of mispredicted indirect branches.
system.cpu.dtb.walker.pwrStateResidencyTicks::UNDEFINED 817354556000                       # Cumulative time (in ticks) in various power states
system.cpu.dtb.rdAccesses                   435403486                       # TLB accesses on read requests
system.cpu.dtb.wrAccesses                   204802472                       # TLB accesses on write requests
system.cpu.dtb.rdMisses                            85                       # TLB misses on read requests
system.cpu.dtb.wrMisses                            31                       # TLB misses on write requests
system.cpu.apic_clk_domain.clock                 8000                       # Clock period in ticks
system.cpu.interrupts.pwrStateResidencyTicks::UNDEFINED 817354556000                       # Cumulative time (in ticks) in various power states
system.cpu.itb.walker.pwrStateResidencyTicks::UNDEFINED 817354556000                       # Cumulative time (in ticks) in various power states
system.cpu.itb.rdAccesses                           0                       # TLB accesses on read requests
system.cpu.itb.wrAccesses                      523468                       # TLB accesses on write requests
system.cpu.itb.rdMisses                             0                       # TLB misses on read requests
system.cpu.itb.wrMisses                            92                       # TLB misses on write requests
system.cpu.workload.numSyscalls                    11                       # Number of system calls
system.cpu.pwrStateResidencyTicks::ON    817354556000                       # Cumulative time (in ticks) in various power states
system.cpu.numCycles                       1634709113                       # number of cpu cycles simulated
system.cpu.numWorkItemsStarted                      0                       # number of work items this cpu started
system.cpu.numWorkItemsCompleted                    0                       # number of work items this cpu completed
system.cpu.fetch.icacheStallCycles             553616                       # Number of cycles fetch is stalled on an Icache miss
system.cpu.fetch.Insts                     2361519297                       # Number of instructions fetch has processed
system.cpu.fetch.Branches                   256626609                       # Number of branches that fetch encountered
system.cpu.fetch.predictedBranches          256520484                       # Number of branches that fetch has predicted taken
system.cpu.fetch.Cycles                    1634001555                       # Number of cycles fetch has run and was not squashing or blocked
system.cpu.fetch.SquashCycles                  222514                       # Number of cycles fetch has spent squashing
system.cpu.fetch.MiscStallCycles                   34                       # Number of cycles fetch has spent waiting on interrupts, or bad addresses, or out of MSHRs
system.cpu.fetch.PendingTrapStallCycles           202                       # Number of stall cycles due to pending traps
system.cpu.fetch.PendingQuiesceStallCycles           14                       # Number of stall cycles due to pending quiesce instructions
system.cpu.fetch.IcacheWaitRetryStallCycles          211                       # Number of stall cycles due to full MSHR
system.cpu.fetch.CacheLines                    523426                       # Number of cache lines fetched
system.cpu.fetch.IcacheSquashes                   726                       # Number of outstanding Icache misses that were squashed
system.cpu.fetch.rateDist::samples         1634666889                       # Number of instructions fetched each cycle (Total)
system.cpu.fetch.rateDist::mean              2.794720                       # Number of instructions fetched each cycle (Total)
system.cpu.fetch.rateDist::stdev             3.407286                       # Number of instructions fetched each cycle (Total)
system.cpu.fetch.rateDist::underflows               0      0.00%      0.00% # Number of instructions fetched each cycle (Total)
system.cpu.fetch.rateDist::0                839468763     51.35%     51.35% # Number of instructions fetched each cycle (Total)
system.cpu.fetch.rateDist::1                 90580346      5.54%     56.90% # Number of instructions fetched each cycle (Total)
system.cpu.fetch.rateDist::2                 63500255      3.88%     60.78% # Number of instructions fetched each cycle (Total)
system.cpu.fetch.rateDist::3                 38400273      2.35%     63.13% # Number of instructions fetched each cycle (Total)
system.cpu.fetch.rateDist::4                 63490341      3.88%     67.01% # Number of instructions fetched each cycle (Total)
system.cpu.fetch.rateDist::5                 76530248      4.68%     71.69% # Number of instructions fetched each cycle (Total)
system.cpu.fetch.rateDist::6                 25710287      1.57%     73.27% # Number of instructions fetched each cycle (Total)
system.cpu.fetch.rateDist::7                 51110229      3.13%     76.39% # Number of instructions fetched each cycle (Total)
system.cpu.fetch.rateDist::8                385876147     23.61%    100.00% # Number of instructions fetched each cycle (Total)
system.cpu.fetch.rateDist::overflows                0      0.00%    100.00% # Number of instructions fetched each cycle (Total)
system.cpu.fetch.rateDist::min_value                0                       # Number of instructions fetched each cycle (Total)
system.cpu.fetch.rateDist::max_value                8                       # Number of instructions fetched each cycle (Total)
system.cpu.fetch.rateDist::total           1634666889                       # Number of instructions fetched each cycle (Total)
system.cpu.fetch.branchRate                  0.156986                       # Number of branch fetches per cycle
system.cpu.fetch.rate                        1.444611                       # Number of inst fetches per cycle
system.cpu.decode.IdleCycles                197531041                       # Number of cycles decode is idle
system.cpu.decode.BlockedCycles             865667497                       # Number of cycles decode is blocked
system.cpu.decode.RunCycles                 118986553                       # Number of cycles decode is running
system.cpu.decode.UnblockCycles             452370541                       # Number of cycles decode is unblocking
system.cpu.decode.SquashCycles                 111257                       # Number of cycles decode is squashing
system.cpu.decode.DecodedInsts             4564831243                       # Number of instructions handled by decode
system.cpu.rename.SquashCycles                 111257                       # Number of cycles rename is squashing
system.cpu.rename.IdleCycles                300031441                       # Number of cycles rename is idle
system.cpu.rename.BlockCycles               305381055                       # Number of cycles rename is blocking
system.cpu.rename.serializeStallCycles           1085                       # count of cycles rename stalled for serializing inst
system.cpu.rename.RunCycles                 392306647                       # Number of cycles rename is running
system.cpu.rename.UnblockCycles             636835404                       # Number of cycles rename is unblocking
system.cpu.rename.RenamedInsts             4563227975                       # Number of instructions processed by rename
system.cpu.rename.ROBFullEvents             255219952                       # Number of times rename has blocked due to ROB full
system.cpu.rename.IQFullEvents                 790007                       # Number of times rename has blocked due to IQ full
system.cpu.rename.SQFullEvents              202085586                       # Number of times rename has blocked due to SQ full
system.cpu.rename.RenamedOperands          5128432015                       # Number of destination operands rename has renamed
system.cpu.rename.RenameLookups           10407217035                       # Number of register rename lookups that rename has made
system.cpu.rename.int_rename_lookups       2769728001                       # Number of integer rename lookups
system.cpu.rename.fp_rename_lookups        5228721925                       # Number of floating rename lookups
system.cpu.rename.CommittedMaps            5126179720                       # Number of HB maps that are committed
system.cpu.rename.UndoneMaps                  2252295                       # Number of HB maps that are undone due to squashing
system.cpu.rename.serializingInsts                 31                       # count of serializing insts renamed
system.cpu.rename.tempSerializingInsts             27                       # count of temporary serializing insts renamed
system.cpu.rename.skidInsts                2220641063                       # count of insts added to the skid buffer
system.cpu.memDep0.insertedLoads            409804438                       # Number of loads inserted to the mem dependence unit.
system.cpu.memDep0.insertedStores           204843695                       # Number of stores inserted to the mem dependence unit.
system.cpu.memDep0.conflictingLoads                80                       # Number of conflicting loads.
system.cpu.memDep0.conflictingStores              104                       # Number of conflicting stores.
system.cpu.iq.iqInstsAdded                 4563141132                       # Number of instructions added to the IQ (excludes non-spec)
system.cpu.iq.iqNonSpecInstsAdded                 157                       # Number of non-speculative instructions added to the IQ
system.cpu.iq.iqInstsIssued                4562544018                       # Number of instructions issued
system.cpu.iq.iqSquashedInstsIssued               273                       # Number of squashed instructions issued
system.cpu.iq.iqSquashedInstsExamined         1773491                       # Number of squashed instructions iterated over during squash; mainly for profiling
system.cpu.iq.iqSquashedOperandsExamined      1822619                       # Number of squashed operands that are examined and possibly removed from graph
system.cpu.iq.iqSquashedNonSpecRemoved            146                       # Number of squashed non-spec instructions that were removed
system.cpu.iq.issued_per_cycle::samples    1634666889                       # Number of insts issued each cycle
system.cpu.iq.issued_per_cycle::mean         2.791115                       # Number of insts issued each cycle
system.cpu.iq.issued_per_cycle::stdev        1.853737                       # Number of insts issued each cycle
system.cpu.iq.issued_per_cycle::underflows            0      0.00%      0.00% # Number of insts issued each cycle
system.cpu.iq.issued_per_cycle::0           139627819      8.54%      8.54% # Number of insts issued each cycle
system.cpu.iq.issued_per_cycle::1           392381917     24.00%     32.55% # Number of insts issued each cycle
system.cpu.iq.issued_per_cycle::2           289941589     17.74%     50.28% # Number of insts issued each cycle
system.cpu.iq.issued_per_cycle::3           191550529     11.72%     62.00% # Number of insts issued each cycle
system.cpu.iq.issued_per_cycle::4           216612146     13.25%     75.25% # Number of insts issued each cycle
system.cpu.iq.issued_per_cycle::5           317810384     19.44%     94.69% # Number of insts issued each cycle
system.cpu.iq.issued_per_cycle::6            60191190      3.68%     98.38% # Number of insts issued each cycle
system.cpu.iq.issued_per_cycle::7            13430828      0.82%     99.20% # Number of insts issued each cycle
system.cpu.iq.issued_per_cycle::8            13120487      0.80%    100.00% # Number of insts issued each cycle
system.cpu.iq.issued_per_cycle::overflows            0      0.00%    100.00% # Number of insts issued each cycle
system.cpu.iq.issued_per_cycle::min_value            0                       # Number of insts issued each cycle
system.cpu.iq.issued_per_cycle::max_value            8                       # Number of insts issued each cycle
system.cpu.iq.issued_per_cycle::total      1634666889                       # Number of insts issued each cycle
system.cpu.iq.fu_full::No_OpClass                   0      0.00%      0.00% # attempts to use FU when none available
system.cpu.iq.fu_full::IntAlu                  100420      0.78%      0.78% # attempts to use FU when none available
system.cpu.iq.fu_full::IntMult                      0      0.00%      0.78% # attempts to use FU when none available
system.cpu.iq.fu_full::IntDiv                       0      0.00%      0.78% # attempts to use FU when none available
system.cpu.iq.fu_full::FloatAdd              12830024     99.22%    100.00% # attempts to use FU when none available
system.cpu.iq.fu_full::FloatCmp                     0      0.00%    100.00% # attempts to use FU when none available
system.cpu.iq.fu_full::FloatCvt                     0      0.00%    100.00% # attempts to use FU when none available
system.cpu.iq.fu_full::FloatMult                    0      0.00%    100.00% # attempts to use FU when none available
system.cpu.iq.fu_full::FloatMultAcc                 0      0.00%    100.00% # attempts to use FU when none available
system.cpu.iq.fu_full::FloatDiv                     0      0.00%    100.00% # attempts to use FU when none available
system.cpu.iq.fu_full::FloatMisc                    0      0.00%    100.00% # attempts to use FU when none available
system.cpu.iq.fu_full::FloatSqrt                    0      0.00%    100.00% # attempts to use FU when none available
system.cpu.iq.fu_full::SimdAdd                      0      0.00%    100.00% # attempts to use FU when none available
system.cpu.iq.fu_full::SimdAddAcc                   0      0.00%    100.00% # attempts to use FU when none available
system.cpu.iq.fu_full::SimdAlu                      0      0.00%    100.00% # attempts to use FU when none available
system.cpu.iq.fu_full::SimdCmp                      0      0.00%    100.00% # attempts to use FU when none available
system.cpu.iq.fu_full::SimdCvt                      0      0.00%    100.00% # attempts to use FU when none available
system.cpu.iq.fu_full::SimdMisc                     0      0.00%    100.00% # attempts to use FU when none available
system.cpu.iq.fu_full::SimdMult                     0      0.00%    100.00% # attempts to use FU when none available
system.cpu.iq.fu_full::SimdMultAcc                  0      0.00%    100.00% # attempts to use FU when none available
system.cpu.iq.fu_full::SimdShift                    0      0.00%    100.00% # attempts to use FU when none available
system.cpu.iq.fu_full::SimdShiftAcc                 0      0.00%    100.00% # attempts to use FU when none available
system.cpu.iq.fu_full::SimdSqrt                     0      0.00%    100.00% # attempts to use FU when none available
system.cpu.iq.fu_full::SimdFloatAdd                 0      0.00%    100.00% # attempts to use FU when none available
system.cpu.iq.fu_full::SimdFloatAlu                 0      0.00%    100.00% # attempts to use FU when none available
system.cpu.iq.fu_full::SimdFloatCmp                 0      0.00%    100.00% # attempts to use FU when none available
system.cpu.iq.fu_full::SimdFloatCvt                 0      0.00%    100.00% # attempts to use FU when none available
system.cpu.iq.fu_full::SimdFloatDiv                 0      0.00%    100.00% # attempts to use FU when none available
system.cpu.iq.fu_full::SimdFloatMisc                0      0.00%    100.00% # attempts to use FU when none available
system.cpu.iq.fu_full::SimdFloatMult                0      0.00%    100.00% # attempts to use FU when none available
system.cpu.iq.fu_full::SimdFloatMultAcc             0      0.00%    100.00% # attempts to use FU when none available
system.cpu.iq.fu_full::SimdFloatSqrt                0      0.00%    100.00% # attempts to use FU when none available
system.cpu.iq.fu_full::MemRead                     26      0.00%    100.00% # attempts to use FU when none available
system.cpu.iq.fu_full::MemWrite                     9      0.00%    100.00% # attempts to use FU when none available
system.cpu.iq.fu_full::FloatMemRead                 0      0.00%    100.00% # attempts to use FU when none available
system.cpu.iq.fu_full::FloatMemWrite               11      0.00%    100.00% # attempts to use FU when none available
system.cpu.iq.fu_full::IprAccess                    0      0.00%    100.00% # attempts to use FU when none available
system.cpu.iq.fu_full::InstPrefetch                 0      0.00%    100.00% # attempts to use FU when none available
system.cpu.iq.FU_type_0::No_OpClass            110650      0.00%      0.00% # Type of FU issued
system.cpu.iq.FU_type_0::IntAlu            1898526212     41.61%     41.61% # Type of FU issued
system.cpu.iq.FU_type_0::IntMult               100025      0.00%     41.62% # Type of FU issued
system.cpu.iq.FU_type_0::IntDiv                   100      0.00%     41.62% # Type of FU issued
system.cpu.iq.FU_type_0::FloatAdd          2049200474     44.91%     86.53% # Type of FU issued
system.cpu.iq.FU_type_0::FloatCmp                   0      0.00%     86.53% # Type of FU issued
system.cpu.iq.FU_type_0::FloatCvt                   0      0.00%     86.53% # Type of FU issued
system.cpu.iq.FU_type_0::FloatMult                  0      0.00%     86.53% # Type of FU issued
system.cpu.iq.FU_type_0::FloatMultAcc               0      0.00%     86.53% # Type of FU issued
system.cpu.iq.FU_type_0::FloatDiv                   0      0.00%     86.53% # Type of FU issued
system.cpu.iq.FU_type_0::FloatMisc                  0      0.00%     86.53% # Type of FU issued
system.cpu.iq.FU_type_0::FloatSqrt                  0      0.00%     86.53% # Type of FU issued
system.cpu.iq.FU_type_0::SimdAdd                    0      0.00%     86.53% # Type of FU issued
system.cpu.iq.FU_type_0::SimdAddAcc                 0      0.00%     86.53% # Type of FU issued
system.cpu.iq.FU_type_0::SimdAlu                    0      0.00%     86.53% # Type of FU issued
system.cpu.iq.FU_type_0::SimdCmp                    0      0.00%     86.53% # Type of FU issued
system.cpu.iq.FU_type_0::SimdCvt                    0      0.00%     86.53% # Type of FU issued
system.cpu.iq.FU_type_0::SimdMisc                   0      0.00%     86.53% # Type of FU issued
system.cpu.iq.FU_type_0::SimdMult                   0      0.00%     86.53% # Type of FU issued
system.cpu.iq.FU_type_0::SimdMultAcc                0      0.00%     86.53% # Type of FU issued
system.cpu.iq.FU_type_0::SimdShift                  0      0.00%     86.53% # Type of FU issued
system.cpu.iq.FU_type_0::SimdShiftAcc               0      0.00%     86.53% # Type of FU issued
system.cpu.iq.FU_type_0::SimdSqrt                   0      0.00%     86.53% # Type of FU issued
system.cpu.iq.FU_type_0::SimdFloatAdd               0      0.00%     86.53% # Type of FU issued
system.cpu.iq.FU_type_0::SimdFloatAlu               0      0.00%     86.53% # Type of FU issued
system.cpu.iq.FU_type_0::SimdFloatCmp               0      0.00%     86.53% # Type of FU issued
system.cpu.iq.FU_type_0::SimdFloatCvt               0      0.00%     86.53% # Type of FU issued
system.cpu.iq.FU_type_0::SimdFloatDiv               0      0.00%     86.53% # Type of FU issued
system.cpu.iq.FU_type_0::SimdFloatMisc              0      0.00%     86.53% # Type of FU issued
system.cpu.iq.FU_type_0::SimdFloatMult              0      0.00%     86.53% # Type of FU issued
system.cpu.iq.FU_type_0::SimdFloatMultAcc            0      0.00%     86.53% # Type of FU issued
system.cpu.iq.FU_type_0::SimdFloatSqrt              0      0.00%     86.53% # Type of FU issued
system.cpu.iq.FU_type_0::MemRead                 3712      0.00%     86.53% # Type of FU issued
system.cpu.iq.FU_type_0::MemWrite                2585      0.00%     86.53% # Type of FU issued
system.cpu.iq.FU_type_0::FloatMemRead       409800087      8.98%     95.51% # Type of FU issued
system.cpu.iq.FU_type_0::FloatMemWrite      204800173      4.49%    100.00% # Type of FU issued
system.cpu.iq.FU_type_0::IprAccess                  0      0.00%    100.00% # Type of FU issued
system.cpu.iq.FU_type_0::InstPrefetch               0      0.00%    100.00% # Type of FU issued
system.cpu.iq.FU_type_0::total             4562544018                       # Type of FU issued
system.cpu.iq.rate                           2.791043                       # Inst issue rate
system.cpu.iq.fu_busy_cnt                    12930490                       # FU busy when requested
system.cpu.iq.fu_busy_rate                   0.002834                       # FU busy rate (busy events/executed inst)
system.cpu.iq.int_inst_queue_reads         5224874037                       # Number of integer instruction queue reads
system.cpu.iq.int_inst_queue_writes        1795633281                       # Number of integer instruction queue writes
system.cpu.iq.int_inst_queue_wakeup_accesses   1794850077                       # Number of integer instruction queue wakeup accesses
system.cpu.iq.fp_inst_queue_reads          5547811651                       # Number of floating instruction queue reads
system.cpu.iq.fp_inst_queue_writes         2769281521                       # Number of floating instruction queue writes
system.cpu.iq.fp_inst_queue_wakeup_accesses   2767270715                       # Number of floating instruction queue wakeup accesses
system.cpu.iq.vec_inst_queue_reads                  0                       # Number of vector instruction queue reads
system.cpu.iq.vec_inst_queue_writes                 0                       # Number of vector instruction queue writes
system.cpu.iq.vec_inst_queue_wakeup_accesses            0                       # Number of vector instruction queue wakeup accesses
system.cpu.iq.int_alu_accesses             1795043015                       # Number of integer alu accesses
system.cpu.iq.fp_alu_accesses              2780320843                       # Number of floating point alu accesses
system.cpu.iq.vec_alu_accesses                      0                       # Number of vector alu accesses
system.cpu.iew.lsq.thread0.forwLoads              243                       # Number of loads that had data forwarded from stores
system.cpu.iew.lsq.thread0.invAddrLoads             0                       # Number of loads ignored due to an invalid address
system.cpu.iew.lsq.thread0.squashedLoads       202546                       # Number of loads squashed
system.cpu.iew.lsq.thread0.ignoredResponses           10                       # Number of memory responses ignored because the instruction is squashed
system.cpu.iew.lsq.thread0.memOrderViolation           22                       # Number of memory ordering violations
system.cpu.iew.lsq.thread0.squashedStores        41969                       # Number of stores squashed
system.cpu.iew.lsq.thread0.invAddrSwpfs             0                       # Number of software prefetches ignored due to an invalid address
system.cpu.iew.lsq.thread0.blockedLoads             0                       # Number of blocked loads due to partial load-store forwarding
system.cpu.iew.lsq.thread0.rescheduledLoads            3                       # Number of loads that were rescheduled
system.cpu.iew.lsq.thread0.cacheBlocked             8                       # Number of times an access to memory failed due to the cache being blocked
system.cpu.iew.iewIdleCycles                        0                       # Number of cycles IEW is idle
system.cpu.iew.iewSquashCycles                 111257                       # Number of cycles IEW is squashing
system.cpu.iew.iewBlockCycles                  143068                       # Number of cycles IEW is blocking
system.cpu.iew.iewUnblockCycles                 17439                       # Number of cycles IEW is unblocking
system.cpu.iew.iewDispatchedInsts          4563141303                       # Number of instructions dispatched to IQ
system.cpu.iew.iewDispSquashedInsts                74                       # Number of squashed instructions skipped by dispatch
system.cpu.iew.iewDispLoadInsts             409804438                       # Number of dispatched load instructions
system.cpu.iew.iewDispStoreInsts            204843695                       # Number of dispatched store instructions
system.cpu.iew.iewDispNonSpecInsts                 69                       # Number of dispatched non-speculative instructions
system.cpu.iew.iewIQFullEvents                     10                       # Number of times the IQ has become full, causing a stall
system.cpu.iew.iewLSQFullEvents                 17426                       # Number of times the LSQ has become full, causing a stall
system.cpu.iew.memOrderViolationEvents             22                       # Number of memory order violations
system.cpu.iew.predictedTakenIncorrect         110078                       # Number of branches that were predicted taken incorrectly
system.cpu.iew.predictedNotTakenIncorrect         1548                       # Number of branches that were predicted not taken incorrectly
system.cpu.iew.branchMispredicts               111626                       # Number of branch mispredicts detected at execute
system.cpu.iew.iewExecutedInsts            4562221751                       # Number of executed instructions
system.cpu.iew.iewExecLoadInsts             409803480                       # Number of load instructions executed
system.cpu.iew.iewExecSquashedInsts            322267                       # Number of squashed instructions skipped in execute
system.cpu.iew.exec_swp                             0                       # number of swp insts executed
system.cpu.iew.exec_nop                            14                       # number of nop insts executed
system.cpu.iew.exec_refs                    614605952                       # number of memory reference insts executed
system.cpu.iew.exec_branches                256303159                       # Number of branches executed
system.cpu.iew.exec_stores                  204802472                       # Number of stores executed
system.cpu.iew.exec_rate                     2.790846                       # Inst execution rate
system.cpu.iew.wb_sent                     4562121171                       # cumulative count of insts sent to commit
system.cpu.iew.wb_count                    4562120792                       # cumulative count of insts written-back
system.cpu.iew.wb_producers                3340670607                       # num instructions producing a value
system.cpu.iew.wb_consumers                4796053468                       # num instructions consuming a value
system.cpu.iew.wb_rate                       2.790784                       # insts written-back per cycle
system.cpu.iew.wb_fanout                     0.696546                       # average fanout of values written-back
system.cpu.commit.commitSquashedInsts         1773514                       # The number of squashed insts skipped by commit
system.cpu.commit.commitNonSpecStalls              11                       # The number of times commit has been forced to stall to communicate backwards
system.cpu.commit.branchMispredicts            111238                       # The number of times a branch was mispredicted
system.cpu.commit.committed_per_cycle::samples   1634412795                       # Number of insts commited each cycle
system.cpu.commit.committed_per_cycle::mean     2.790830                       # Number of insts commited each cycle
system.cpu.commit.committed_per_cycle::stdev     2.687315                       # Number of insts commited each cycle
system.cpu.commit.committed_per_cycle::underflows            0      0.00%      0.00% # Number of insts commited each cycle
system.cpu.commit.committed_per_cycle::0    473447204     28.97%     28.97% # Number of insts commited each cycle
system.cpu.commit.committed_per_cycle::1    236071844     14.44%     43.41% # Number of insts commited each cycle
system.cpu.commit.committed_per_cycle::2    100301032      6.14%     49.55% # Number of insts commited each cycle
system.cpu.commit.committed_per_cycle::3    304600889     18.64%     68.18% # Number of insts commited each cycle
system.cpu.commit.committed_per_cycle::4     68890589      4.22%     72.40% # Number of insts commited each cycle
system.cpu.commit.committed_per_cycle::5    211800158     12.96%     85.36% # Number of insts commited each cycle
system.cpu.commit.committed_per_cycle::6      6590199      0.40%     85.76% # Number of insts commited each cycle
system.cpu.commit.committed_per_cycle::7     24900158      1.52%     87.29% # Number of insts commited each cycle
system.cpu.commit.committed_per_cycle::8    207810722     12.71%    100.00% # Number of insts commited each cycle
system.cpu.commit.committed_per_cycle::overflows            0      0.00%    100.00% # Number of insts commited each cycle
system.cpu.commit.committed_per_cycle::min_value            0                       # Number of insts commited each cycle
system.cpu.commit.committed_per_cycle::max_value            8                       # Number of insts commited each cycle
system.cpu.commit.committed_per_cycle::total   1634412795                       # Number of insts commited each cycle
system.cpu.commit.committedInsts           2357799081                       # Number of instructions committed
system.cpu.commit.committedOps             4561367797                       # Number of ops (including micro ops) committed
system.cpu.commit.swp_count                         0                       # Number of s/w prefetches committed
system.cpu.commit.refs                      614403618                       # Number of memory references committed
system.cpu.commit.loads                     409601892                       # Number of loads committed
system.cpu.commit.membars                           0                       # Number of memory barriers committed
system.cpu.commit.branches                  256292046                       # Number of branches committed
system.cpu.commit.vec_insts                         0                       # Number of committed Vector instructions.
system.cpu.commit.fp_insts                 2766680515                       # Number of committed floating point instructions.
system.cpu.commit.int_insts                2408987481                       # Number of committed integer instructions.
system.cpu.commit.function_calls                  169                       # Number of function calls committed.
system.cpu.commit.op_class_0::No_OpClass       100084      0.00%      0.00% # Class of committed instruction
system.cpu.commit.op_class_0::IntAlu       1898043713     41.61%     41.61% # Class of committed instruction
system.cpu.commit.op_class_0::IntMult          100020      0.00%     41.62% # Class of committed instruction
system.cpu.commit.op_class_0::IntDiv               91      0.00%     41.62% # Class of committed instruction
system.cpu.commit.op_class_0::FloatAdd     2048720271     44.91%     86.53% # Class of committed instruction
system.cpu.commit.op_class_0::FloatCmp              0      0.00%     86.53% # Class of committed instruction
system.cpu.commit.op_class_0::FloatCvt              0      0.00%     86.53% # Class of committed instruction
system.cpu.commit.op_class_0::FloatMult             0      0.00%     86.53% # Class of committed instruction
system.cpu.commit.op_class_0::FloatMultAcc            0      0.00%     86.53% # Class of committed instruction
system.cpu.commit.op_class_0::FloatDiv              0      0.00%     86.53% # Class of committed instruction
system.cpu.commit.op_class_0::FloatMisc             0      0.00%     86.53% # Class of committed instruction
system.cpu.commit.op_class_0::FloatSqrt             0      0.00%     86.53% # Class of committed instruction
system.cpu.commit.op_class_0::SimdAdd               0      0.00%     86.53% # Class of committed instruction
system.cpu.commit.op_class_0::SimdAddAcc            0      0.00%     86.53% # Class of committed instruction
system.cpu.commit.op_class_0::SimdAlu               0      0.00%     86.53% # Class of committed instruction
system.cpu.commit.op_class_0::SimdCmp               0      0.00%     86.53% # Class of committed instruction
system.cpu.commit.op_class_0::SimdCvt               0      0.00%     86.53% # Class of committed instruction
system.cpu.commit.op_class_0::SimdMisc              0      0.00%     86.53% # Class of committed instruction
system.cpu.commit.op_class_0::SimdMult              0      0.00%     86.53% # Class of committed instruction
system.cpu.commit.op_class_0::SimdMultAcc            0      0.00%     86.53% # Class of committed instruction
system.cpu.commit.op_class_0::SimdShift             0      0.00%     86.53% # Class of committed instruction
system.cpu.commit.op_class_0::SimdShiftAcc            0      0.00%     86.53% # Class of committed instruction
system.cpu.commit.op_class_0::SimdSqrt              0      0.00%     86.53% # Class of committed instruction
system.cpu.commit.op_class_0::SimdFloatAdd            0      0.00%     86.53% # Class of committed instruction
system.cpu.commit.op_class_0::SimdFloatAlu            0      0.00%     86.53% # Class of committed instruction
system.cpu.commit.op_class_0::SimdFloatCmp            0      0.00%     86.53% # Class of committed instruction
system.cpu.commit.op_class_0::SimdFloatCvt            0      0.00%     86.53% # Class of committed instruction
system.cpu.commit.op_class_0::SimdFloatDiv            0      0.00%     86.53% # Class of committed instruction
system.cpu.commit.op_class_0::SimdFloatMisc            0      0.00%     86.53% # Class of committed instruction
system.cpu.commit.op_class_0::SimdFloatMult            0      0.00%     86.53% # Class of committed instruction
system.cpu.commit.op_class_0::SimdFloatMultAcc            0      0.00%     86.53% # Class of committed instruction
system.cpu.commit.op_class_0::SimdFloatSqrt            0      0.00%     86.53% # Class of committed instruction
system.cpu.commit.op_class_0::MemRead            1839      0.00%     86.53% # Class of committed instruction
system.cpu.commit.op_class_0::MemWrite           1557      0.00%     86.53% # Class of committed instruction
system.cpu.commit.op_class_0::FloatMemRead    409600053      8.98%     95.51% # Class of committed instruction
system.cpu.commit.op_class_0::FloatMemWrite    204800169      4.49%    100.00% # Class of committed instruction
system.cpu.commit.op_class_0::IprAccess             0      0.00%    100.00% # Class of committed instruction
system.cpu.commit.op_class_0::InstPrefetch            0      0.00%    100.00% # Class of committed instruction
system.cpu.commit.op_class_0::total        4561367797                       # Class of committed instruction
system.cpu.commit.bw_lim_events             207810722                       # number cycles where commit BW limit reached
system.cpu.rob.rob_reads                   5989743384                       # The number of ROB reads
system.cpu.rob.rob_writes                  9126536807                       # The number of ROB writes
system.cpu.timesIdled                             350                       # Number of times that the entire CPU went into an idle state and unscheduled itself
system.cpu.idleCycles                           42224                       # Total number of cycles that the CPU has spent unscheduled due to idling
system.cpu.committedInsts                  2357799081                       # Number of Instructions Simulated
system.cpu.committedOps                    4561367797                       # Number of Ops (including micro ops) Simulated
system.cpu.cpi                               0.693320                       # CPI: Cycles Per Instruction
system.cpu.cpi_total                         0.693320                       # CPI: Total CPI of All Threads
system.cpu.ipc                               1.442336                       # IPC: Instructions Per Cycle
system.cpu.ipc_total                         1.442336                       # IPC: Total IPC of All Threads
system.cpu.int_regfile_reads               2769160884                       # number of integer regfile reads
system.cpu.int_regfile_writes              1538534603                       # number of integer regfile writes
system.cpu.fp_regfile_reads                5227271113                       # number of floating regfile reads
system.cpu.fp_regfile_writes               2562470481                       # number of floating regfile writes
system.cpu.cc_regfile_reads                1281423785                       # number of cc regfile reads
system.cpu.cc_regfile_writes               1025928605                       # number of cc regfile writes
system.cpu.misc_regfile_reads              1127213784                       # number of misc regfile reads
system.cpu.dcache.tags.pwrStateResidencyTicks::UNDEFINED 817354556000                       # Cumulative time (in ticks) in various power states
system.cpu.dcache.tags.replacements                 9                       # number of replacements
system.cpu.dcache.tags.tagsinuse           403.988859                       # Cycle average of tags in use
system.cpu.dcache.tags.total_refs           640204305                       # Total number of references to valid blocks.
system.cpu.dcache.tags.sampled_refs               475                       # Sample count of references to valid blocks.
system.cpu.dcache.tags.avg_refs          1347798.536842                       # Average number of references to valid blocks.
system.cpu.dcache.tags.warmup_cycle            169500                       # Cycle when the warmup percentage was hit.
system.cpu.dcache.tags.occ_blocks::cpu.data   403.988859                       # Average occupied blocks per requestor
system.cpu.dcache.tags.occ_percent::cpu.data     0.394520                       # Average percentage of cache occupancy
system.cpu.dcache.tags.occ_percent::total     0.394520                       # Average percentage of cache occupancy
system.cpu.dcache.tags.occ_task_id_blocks::1024          466                       # Occupied blocks per task id
system.cpu.dcache.tags.age_task_id_blocks_1024::0           23                       # Occupied blocks per task id
system.cpu.dcache.tags.age_task_id_blocks_1024::1           47                       # Occupied blocks per task id
system.cpu.dcache.tags.age_task_id_blocks_1024::4          396                       # Occupied blocks per task id
system.cpu.dcache.tags.occ_task_id_percent::1024     0.455078                       # Percentage of cache occupancy per task id
system.cpu.dcache.tags.tag_accesses        1280410259                       # Number of tag accesses
system.cpu.dcache.tags.data_accesses       1280410259                       # Number of data accesses
system.cpu.dcache.pwrStateResidencyTicks::UNDEFINED 817354556000                       # Cumulative time (in ticks) in various power states
system.cpu.dcache.ReadReq_hits::cpu.data    435402937                       # number of ReadReq hits
system.cpu.dcache.ReadReq_hits::total       435402937                       # number of ReadReq hits
system.cpu.dcache.WriteReq_hits::cpu.data    204801368                       # number of WriteReq hits
system.cpu.dcache.WriteReq_hits::total      204801368                       # number of WriteReq hits
system.cpu.dcache.demand_hits::cpu.data     640204305                       # number of demand (read+write) hits
system.cpu.dcache.demand_hits::total        640204305                       # number of demand (read+write) hits
system.cpu.dcache.overall_hits::cpu.data    640204305                       # number of overall hits
system.cpu.dcache.overall_hits::total       640204305                       # number of overall hits
system.cpu.dcache.ReadReq_misses::cpu.data          229                       # number of ReadReq misses
system.cpu.dcache.ReadReq_misses::total           229                       # number of ReadReq misses
system.cpu.dcache.WriteReq_misses::cpu.data          358                       # number of WriteReq misses
system.cpu.dcache.WriteReq_misses::total          358                       # number of WriteReq misses
system.cpu.dcache.demand_misses::cpu.data          587                       # number of demand (read+write) misses
system.cpu.dcache.demand_misses::total            587                       # number of demand (read+write) misses
system.cpu.dcache.overall_misses::cpu.data          587                       # number of overall misses
system.cpu.dcache.overall_misses::total           587                       # number of overall misses
system.cpu.dcache.ReadReq_miss_latency::cpu.data     16928500                       # number of ReadReq miss cycles
system.cpu.dcache.ReadReq_miss_latency::total     16928500                       # number of ReadReq miss cycles
system.cpu.dcache.WriteReq_miss_latency::cpu.data     28315000                       # number of WriteReq miss cycles
system.cpu.dcache.WriteReq_miss_latency::total     28315000                       # number of WriteReq miss cycles
system.cpu.dcache.demand_miss_latency::cpu.data     45243500                       # number of demand (read+write) miss cycles
system.cpu.dcache.demand_miss_latency::total     45243500                       # number of demand (read+write) miss cycles
system.cpu.dcache.overall_miss_latency::cpu.data     45243500                       # number of overall miss cycles
system.cpu.dcache.overall_miss_latency::total     45243500                       # number of overall miss cycles
system.cpu.dcache.ReadReq_accesses::cpu.data    435403166                       # number of ReadReq accesses(hits+misses)
system.cpu.dcache.ReadReq_accesses::total    435403166                       # number of ReadReq accesses(hits+misses)
system.cpu.dcache.WriteReq_accesses::cpu.data    204801726                       # number of WriteReq accesses(hits+misses)
system.cpu.dcache.WriteReq_accesses::total    204801726                       # number of WriteReq accesses(hits+misses)
system.cpu.dcache.demand_accesses::cpu.data    640204892                       # number of demand (read+write) accesses
system.cpu.dcache.demand_accesses::total    640204892                       # number of demand (read+write) accesses
system.cpu.dcache.overall_accesses::cpu.data    640204892                       # number of overall (read+write) accesses
system.cpu.dcache.overall_accesses::total    640204892                       # number of overall (read+write) accesses
system.cpu.dcache.ReadReq_miss_rate::cpu.data     0.000001                       # miss rate for ReadReq accesses
system.cpu.dcache.ReadReq_miss_rate::total     0.000001                       # miss rate for ReadReq accesses
system.cpu.dcache.WriteReq_miss_rate::cpu.data     0.000002                       # miss rate for WriteReq accesses
system.cpu.dcache.WriteReq_miss_rate::total     0.000002                       # miss rate for WriteReq accesses
system.cpu.dcache.demand_miss_rate::cpu.data     0.000001                       # miss rate for demand accesses
system.cpu.dcache.demand_miss_rate::total     0.000001                       # miss rate for demand accesses
system.cpu.dcache.overall_miss_rate::cpu.data     0.000001                       # miss rate for overall accesses
system.cpu.dcache.overall_miss_rate::total     0.000001                       # miss rate for overall accesses
system.cpu.dcache.ReadReq_avg_miss_latency::cpu.data 73923.580786                       # average ReadReq miss latency
system.cpu.dcache.ReadReq_avg_miss_latency::total 73923.580786                       # average ReadReq miss latency
system.cpu.dcache.WriteReq_avg_miss_latency::cpu.data 79092.178771                       # average WriteReq miss latency
system.cpu.dcache.WriteReq_avg_miss_latency::total 79092.178771                       # average WriteReq miss latency
system.cpu.dcache.demand_avg_miss_latency::cpu.data 77075.809199                       # average overall miss latency
system.cpu.dcache.demand_avg_miss_latency::total 77075.809199                       # average overall miss latency
system.cpu.dcache.overall_avg_miss_latency::cpu.data 77075.809199                       # average overall miss latency
system.cpu.dcache.overall_avg_miss_latency::total 77075.809199                       # average overall miss latency
system.cpu.dcache.blocked_cycles::no_mshrs          258                       # number of cycles access was blocked
system.cpu.dcache.blocked_cycles::no_targets            0                       # number of cycles access was blocked
system.cpu.dcache.blocked::no_mshrs                 3                       # number of cycles access was blocked
system.cpu.dcache.blocked::no_targets               0                       # number of cycles access was blocked
system.cpu.dcache.avg_blocked_cycles::no_mshrs           86                       # average number of cycles each access was blocked
system.cpu.dcache.avg_blocked_cycles::no_targets          nan                       # average number of cycles each access was blocked
system.cpu.dcache.writebacks::writebacks            1                       # number of writebacks
system.cpu.dcache.writebacks::total                 1                       # number of writebacks
system.cpu.dcache.ReadReq_mshr_hits::cpu.data          111                       # number of ReadReq MSHR hits
system.cpu.dcache.ReadReq_mshr_hits::total          111                       # number of ReadReq MSHR hits
system.cpu.dcache.WriteReq_mshr_hits::cpu.data            1                       # number of WriteReq MSHR hits
system.cpu.dcache.WriteReq_mshr_hits::total            1                       # number of WriteReq MSHR hits
system.cpu.dcache.demand_mshr_hits::cpu.data          112                       # number of demand (read+write) MSHR hits
system.cpu.dcache.demand_mshr_hits::total          112                       # number of demand (read+write) MSHR hits
system.cpu.dcache.overall_mshr_hits::cpu.data          112                       # number of overall MSHR hits
system.cpu.dcache.overall_mshr_hits::total          112                       # number of overall MSHR hits
system.cpu.dcache.ReadReq_mshr_misses::cpu.data          118                       # number of ReadReq MSHR misses
system.cpu.dcache.ReadReq_mshr_misses::total          118                       # number of ReadReq MSHR misses
system.cpu.dcache.WriteReq_mshr_misses::cpu.data          357                       # number of WriteReq MSHR misses
system.cpu.dcache.WriteReq_mshr_misses::total          357                       # number of WriteReq MSHR misses
system.cpu.dcache.demand_mshr_misses::cpu.data          475                       # number of demand (read+write) MSHR misses
system.cpu.dcache.demand_mshr_misses::total          475                       # number of demand (read+write) MSHR misses
system.cpu.dcache.overall_mshr_misses::cpu.data          475                       # number of overall MSHR misses
system.cpu.dcache.overall_mshr_misses::total          475                       # number of overall MSHR misses
system.cpu.dcache.ReadReq_mshr_miss_latency::cpu.data      9651000                       # number of ReadReq MSHR miss cycles
[...]
system.l2cache.tags.occ_percent::cpu.data     0.098874                       # Average percentage of cache occupancy
system.l2cache.tags.occ_percent::total       0.187497                       # Average percentage of cache occupancy
system.l2cache.tags.occ_task_id_blocks::1024         1120                       # Occupied blocks per task id
system.l2cache.tags.age_task_id_blocks_1024::0          189                       # Occupied blocks per task id
system.l2cache.tags.age_task_id_blocks_1024::1          163                       # Occupied blocks per task id
system.l2cache.tags.age_task_id_blocks_1024::4          768                       # Occupied blocks per task id
system.l2cache.tags.occ_task_id_percent::1024     0.273438                       # Percentage of cache occupancy per task id
system.l2cache.tags.tag_accesses                14728                       # Number of tag accesses
system.l2cache.tags.data_accesses               14728                       # Number of data accesses
system.l2cache.pwrStateResidencyTicks::UNDEFINED 817354556000                       # Cumulative time (in ticks) in various power states
system.l2cache.WritebackDirty_hits::writebacks            1                       # number of WritebackDirty hits
system.l2cache.WritebackDirty_hits::total            1                       # number of WritebackDirty hits
system.l2cache.ReadSharedReq_hits::cpu.inst           89                       # number of ReadSharedReq hits
system.l2cache.ReadSharedReq_hits::cpu.data            1                       # number of ReadSharedReq hits
system.l2cache.ReadSharedReq_hits::total           90                       # number of ReadSharedReq hits
system.l2cache.demand_hits::cpu.inst               89                       # number of demand (read+write) hits
system.l2cache.demand_hits::cpu.data                1                       # number of demand (read+write) hits
system.l2cache.demand_hits::total                  90                       # number of demand (read+write) hits
system.l2cache.overall_hits::cpu.inst              89                       # number of overall hits
system.l2cache.overall_hits::cpu.data               1                       # number of overall hits
system.l2cache.overall_hits::total                 90                       # number of overall hits
system.l2cache.ReadExReq_misses::cpu.data          357                       # number of ReadExReq misses
system.l2cache.ReadExReq_misses::total            357                       # number of ReadExReq misses
system.l2cache.ReadSharedReq_misses::cpu.inst          649                       # number of ReadSharedReq misses
system.l2cache.ReadSharedReq_misses::cpu.data          117                       # number of ReadSharedReq misses
system.l2cache.ReadSharedReq_misses::total          766                       # number of ReadSharedReq misses
system.l2cache.demand_misses::cpu.inst            649                       # number of demand (read+write) misses
system.l2cache.demand_misses::cpu.data            474                       # number of demand (read+write) misses
system.l2cache.demand_misses::total              1123                       # number of demand (read+write) misses
system.l2cache.overall_misses::cpu.inst           649                       # number of overall misses
system.l2cache.overall_misses::cpu.data           474                       # number of overall misses
system.l2cache.overall_misses::total             1123                       # number of overall misses
system.l2cache.ReadExReq_miss_latency::cpu.data     27400000                       # number of ReadExReq miss cycles
system.l2cache.ReadExReq_miss_latency::total     27400000                       # number of ReadExReq miss cycles
system.l2cache.ReadSharedReq_miss_latency::cpu.inst     52216000                       # number of ReadSharedReq miss cycles
system.l2cache.ReadSharedReq_miss_latency::cpu.data      9459500                       # number of ReadSharedReq miss cycles
system.l2cache.ReadSharedReq_miss_latency::total     61675500                       # number of ReadSharedReq miss cycles
system.l2cache.demand_miss_latency::cpu.inst     52216000                       # number of demand (read+write) miss cycles
system.l2cache.demand_miss_latency::cpu.data     36859500                       # number of demand (read+write) miss cycles
system.l2cache.demand_miss_latency::total     89075500                       # number of demand (read+write) miss cycles
system.l2cache.overall_miss_latency::cpu.inst     52216000                       # number of overall miss cycles
system.l2cache.overall_miss_latency::cpu.data     36859500                       # number of overall miss cycles
system.l2cache.overall_miss_latency::total     89075500                       # number of overall miss cycles
system.l2cache.WritebackDirty_accesses::writebacks            1                       # number of WritebackDirty accesses(hits+misses)
system.l2cache.WritebackDirty_accesses::total            1                       # number of WritebackDirty accesses(hits+misses)
system.l2cache.ReadExReq_accesses::cpu.data          357                       # number of ReadExReq accesses(hits+misses)
system.l2cache.ReadExReq_accesses::total          357                       # number of ReadExReq accesses(hits+misses)
system.l2cache.ReadSharedReq_accesses::cpu.inst          738                       # number of ReadSharedReq accesses(hits+misses)
system.l2cache.ReadSharedReq_accesses::cpu.data          118                       # number of ReadSharedReq accesses(hits+misses)
system.l2cache.ReadSharedReq_accesses::total          856                       # number of ReadSharedReq accesses(hits+misses)
system.l2cache.demand_accesses::cpu.inst          738                       # number of demand (read+write) accesses
system.l2cache.demand_accesses::cpu.data          475                       # number of demand (read+write) accesses
system.l2cache.demand_accesses::total            1213                       # number of demand (read+write) accesses
system.l2cache.overall_accesses::cpu.inst          738                       # number of overall (read+write) accesses
system.l2cache.overall_accesses::cpu.data          475                       # number of overall (read+write) accesses
system.l2cache.overall_accesses::total           1213                       # number of overall (read+write) accesses
system.l2cache.ReadExReq_miss_rate::cpu.data            1                       # miss rate for ReadExReq accesses
system.l2cache.ReadExReq_miss_rate::total            1                       # miss rate for ReadExReq accesses
system.l2cache.ReadSharedReq_miss_rate::cpu.inst     0.879404                       # miss rate for ReadSharedReq accesses
system.l2cache.ReadSharedReq_miss_rate::cpu.data     0.991525                       # miss rate for ReadSharedReq accesses
system.l2cache.ReadSharedReq_miss_rate::total     0.894860                       # miss rate for ReadSharedReq accesses
system.l2cache.demand_miss_rate::cpu.inst     0.879404                       # miss rate for demand accesses
system.l2cache.demand_miss_rate::cpu.data     0.997895                       # miss rate for demand accesses
system.l2cache.demand_miss_rate::total       0.925804                       # miss rate for demand accesses
system.l2cache.overall_miss_rate::cpu.inst     0.879404                       # miss rate for overall accesses
system.l2cache.overall_miss_rate::cpu.data     0.997895                       # miss rate for overall accesses
system.l2cache.overall_miss_rate::total      0.925804                       # miss rate for overall accesses
system.l2cache.ReadExReq_avg_miss_latency::cpu.data 76750.700280                       # average ReadExReq miss latency
system.l2cache.ReadExReq_avg_miss_latency::total 76750.700280                       # average ReadExReq miss latency
system.l2cache.ReadSharedReq_avg_miss_latency::cpu.inst 80456.086287                       # average ReadSharedReq miss latency
system.l2cache.ReadSharedReq_avg_miss_latency::cpu.data 80850.427350                       # average ReadSharedReq miss latency
system.l2cache.ReadSharedReq_avg_miss_latency::total 80516.318538                       # average ReadSharedReq miss latency
system.l2cache.demand_avg_miss_latency::cpu.inst 80456.086287                       # average overall miss latency
system.l2cache.demand_avg_miss_latency::cpu.data 77762.658228                       # average overall miss latency
system.l2cache.demand_avg_miss_latency::total 79319.234194                       # average overall miss latency
system.l2cache.overall_avg_miss_latency::cpu.inst 80456.086287                       # average overall miss latency
system.l2cache.overall_avg_miss_latency::cpu.data 77762.658228                       # average overall miss latency
system.l2cache.overall_avg_miss_latency::total 79319.234194                       # average overall miss latency
system.l2cache.blocked_cycles::no_mshrs             0                       # number of cycles access was blocked
system.l2cache.blocked_cycles::no_targets            0                       # number of cycles access was blocked
system.l2cache.blocked::no_mshrs                    0                       # number of cycles access was blocked
system.l2cache.blocked::no_targets                  0                       # number of cycles access was blocked
system.l2cache.avg_blocked_cycles::no_mshrs          nan                       # average number of cycles each access was blocked
system.l2cache.avg_blocked_cycles::no_targets          nan                       # average number of cycles each access was blocked
system.l2cache.ReadSharedReq_mshr_hits::cpu.data            1                       # number of ReadSharedReq MSHR hits
system.l2cache.ReadSharedReq_mshr_hits::total            1                       # number of ReadSharedReq MSHR hits
system.l2cache.demand_mshr_hits::cpu.data            1                       # number of demand (read+write) MSHR hits
system.l2cache.demand_mshr_hits::total              1                       # number of demand (read+write) MSHR hits
system.l2cache.overall_mshr_hits::cpu.data            1                       # number of overall MSHR hits
system.l2cache.overall_mshr_hits::total             1                       # number of overall MSHR hits
system.l2cache.ReadExReq_mshr_misses::cpu.data          357                       # number of ReadExReq MSHR misses
system.l2cache.ReadExReq_mshr_misses::total          357                       # number of ReadExReq MSHR misses
system.l2cache.ReadSharedReq_mshr_misses::cpu.inst          649                       # number of ReadSharedReq MSHR misses
system.l2cache.ReadSharedReq_mshr_misses::cpu.data          116                       # number of ReadSharedReq MSHR misses
system.l2cache.ReadSharedReq_mshr_misses::total          765                       # number of ReadSharedReq MSHR misses
system.l2cache.demand_mshr_misses::cpu.inst          649                       # number of demand (read+write) MSHR misses
system.l2cache.demand_mshr_misses::cpu.data          473                       # number of demand (read+write) MSHR misses
system.l2cache.demand_mshr_misses::total         1122                       # number of demand (read+write) MSHR misses
system.l2cache.overall_mshr_misses::cpu.inst          649                       # number of overall MSHR misses
system.l2cache.overall_mshr_misses::cpu.data          473                       # number of overall MSHR misses
system.l2cache.overall_mshr_misses::total         1122                       # number of overall MSHR misses
system.l2cache.ReadExReq_mshr_miss_latency::cpu.data     23830000                       # number of ReadExReq MSHR miss cycles
system.l2cache.ReadExReq_mshr_miss_latency::total     23830000                       # number of ReadExReq MSHR miss cycles
system.l2cache.ReadSharedReq_mshr_miss_latency::cpu.inst     45746000                       # number of ReadSharedReq MSHR miss cycles
system.l2cache.ReadSharedReq_mshr_miss_latency::cpu.data      8239500                       # number of ReadSharedReq MSHR miss cycles
system.l2cache.ReadSharedReq_mshr_miss_latency::total     53985500                       # number of ReadSharedReq MSHR miss cycles
system.l2cache.demand_mshr_miss_latency::cpu.inst     45746000                       # number of demand (read+write) MSHR miss cycles
system.l2cache.demand_mshr_miss_latency::cpu.data     32069500                       # number of demand (read+write) MSHR miss cycles
system.l2cache.demand_mshr_miss_latency::total     77815500                       # number of demand (read+write) MSHR miss cycles
system.l2cache.overall_mshr_miss_latency::cpu.inst     45746000                       # number of overall MSHR miss cycles
system.l2cache.overall_mshr_miss_latency::cpu.data     32069500                       # number of overall MSHR miss cycles
system.l2cache.overall_mshr_miss_latency::total     77815500                       # number of overall MSHR miss cycles
system.l2cache.ReadExReq_mshr_miss_rate::cpu.data            1                       # mshr miss rate for ReadExReq accesses
system.l2cache.ReadExReq_mshr_miss_rate::total            1                       # mshr miss rate for ReadExReq accesses
system.l2cache.ReadSharedReq_mshr_miss_rate::cpu.inst     0.879404                       # mshr miss rate for ReadSharedReq accesses
system.l2cache.ReadSharedReq_mshr_miss_rate::cpu.data     0.983051                       # mshr miss rate for ReadSharedReq accesses
system.l2cache.ReadSharedReq_mshr_miss_rate::total     0.893692                       # mshr miss rate for ReadSharedReq accesses
system.l2cache.demand_mshr_miss_rate::cpu.inst     0.879404                       # mshr miss rate for demand accesses
system.l2cache.demand_mshr_miss_rate::cpu.data     0.995789                       # mshr miss rate for demand accesses
system.l2cache.demand_mshr_miss_rate::total     0.924979                       # mshr miss rate for demand accesses
system.l2cache.overall_mshr_miss_rate::cpu.inst     0.879404                       # mshr miss rate for overall accesses
system.l2cache.overall_mshr_miss_rate::cpu.data     0.995789                       # mshr miss rate for overall accesses
system.l2cache.overall_mshr_miss_rate::total     0.924979                       # mshr miss rate for overall accesses
system.l2cache.ReadExReq_avg_mshr_miss_latency::cpu.data 66750.700280                       # average ReadExReq mshr miss latency
system.l2cache.ReadExReq_avg_mshr_miss_latency::total 66750.700280                       # average ReadExReq mshr miss latency
system.l2cache.ReadSharedReq_avg_mshr_miss_latency::cpu.inst 70486.902928                       # average ReadSharedReq mshr miss latency
system.l2cache.ReadSharedReq_avg_mshr_miss_latency::cpu.data 71030.172414                       # average ReadSharedReq mshr miss latency
system.l2cache.ReadSharedReq_avg_mshr_miss_latency::total 70569.281046                       # average ReadSharedReq mshr miss latency
system.l2cache.demand_avg_mshr_miss_latency::cpu.inst 70486.902928                       # average overall mshr miss latency
system.l2cache.demand_avg_mshr_miss_latency::cpu.data 67800.211416                       # average overall mshr miss latency
system.l2cache.demand_avg_mshr_miss_latency::total 69354.278075                       # average overall mshr miss latency
system.l2cache.overall_avg_mshr_miss_latency::cpu.inst 70486.902928                       # average overall mshr miss latency
system.l2cache.overall_avg_mshr_miss_latency::cpu.data 67800.211416                       # average overall mshr miss latency
system.l2cache.overall_avg_mshr_miss_latency::total 69354.278075                       # average overall mshr miss latency
system.membus.snoop_filter.tot_requests          1121                       # Total number of requests made to the snoop filter.
system.membus.snoop_filter.hit_single_requests            0                       # Number of requests hitting in the snoop filter with a single holder of the requested data.
system.membus.snoop_filter.hit_multi_requests            0                       # Number of requests hitting in the snoop filter with multiple (>1) holders of the requested data.
system.membus.snoop_filter.tot_snoops               0                       # Total number of snoops made to the snoop filter.
system.membus.snoop_filter.hit_single_snoops            0                       # Number of snoops hitting in the snoop filter with a single holder of the requested data.
system.membus.snoop_filter.hit_multi_snoops            0                       # Number of snoops hitting in the snoop filter with multiple (>1) holders of the requested data.
system.membus.pwrStateResidencyTicks::UNDEFINED 817354556000                       # Cumulative time (in ticks) in various power states
system.membus.trans_dist::ReadResp                763                       # Transaction distribution
system.membus.trans_dist::ReadExReq               357                       # Transaction distribution
system.membus.trans_dist::ReadExResp              357                       # Transaction distribution
system.membus.trans_dist::ReadSharedReq           764                       # Transaction distribution
system.membus.pkt_count_system.l2cache.mem_side::system.mem_ctrl.port         2241                       # Packet count per connected master and slave (bytes)
system.membus.pkt_count_system.l2cache.mem_side::total         2241                       # Packet count per connected master and slave (bytes)
system.membus.pkt_count::total                   2241                       # Packet count per connected master and slave (bytes)
system.membus.pkt_size_system.l2cache.mem_side::system.mem_ctrl.port        71680                       # Cumulative packet size per connected master and slave (bytes)
system.membus.pkt_size_system.l2cache.mem_side::total        71680                       # Cumulative packet size per connected master and slave (bytes)
system.membus.pkt_size::total                   71680                       # Cumulative packet size per connected master and slave (bytes)
system.membus.snoops                                0                       # Total snoops (count)
system.membus.snoopTraffic                          0                       # Total snoop traffic (bytes)
system.membus.snoop_fanout::samples              1121                       # Request fanout histogram
system.membus.snoop_fanout::mean                    0                       # Request fanout histogram
system.membus.snoop_fanout::stdev                   0                       # Request fanout histogram
system.membus.snoop_fanout::underflows              0      0.00%      0.00% # Request fanout histogram
system.membus.snoop_fanout::0                    1121    100.00%    100.00% # Request fanout histogram
system.membus.snoop_fanout::1                       0      0.00%    100.00% # Request fanout histogram
system.membus.snoop_fanout::overflows               0      0.00%    100.00% # Request fanout histogram
system.membus.snoop_fanout::min_value               0                       # Request fanout histogram
system.membus.snoop_fanout::max_value               0                       # Request fanout histogram
system.membus.snoop_fanout::total                1121                       # Request fanout histogram
system.membus.reqLayer2.occupancy              560500                       # Layer occupancy (ticks)
system.membus.reqLayer2.utilization               0.0                       # Layer utilization (%)
system.membus.respLayer0.occupancy            3046000                       # Layer occupancy (ticks)
system.membus.respLayer0.utilization              0.0                       # Layer utilization (%)

---------- End Simulation Statistics   ----------
